System Matpower Format/npcc_ny_lite_s11_dlr_pf_base.m
function mpc = npcc_ny_lite_s11_dlr_pf_base
%NPCC_NY_LITE_S11_DLR_PF_BASE

%% MATPOWER Case Format : Version 2
mpc.version = '2';

%%-----  Power Flow Data  -----%%
%% system MVA base
mpc.baseMVA = 100;

%% bus data
%	bus_i	type	Pd	Qd	Gs	Bs	area	Vm	Va	baseKV	zone	Vmax	Vmin
mpc.bus = [
	37	2	0	0	0	0	2	0.982645015	18.3035278	345	70	1.1	0.9;
	38	2	0	0	0	0	2	1.00304345	23.0618178	345	70	1.1	0.9;
	39	2	458.73926	0	0	0	2	0.950780775	15.5412286	345	71	1.1	0.9;
	40	1	0	0	0	0	2	1.01088751	20.3310329	230	70	1.1	0.9;
	41	2	1763.06079	0	0	0	2	1.06573591	17.4856336	115	70	1.1	0.9;
	42	1	445.802514	0	0	0	2	1.09998974	22.066064	115	70	1.1	0.9;
	43	1	0	0	0	0	2	1.02910908	23.1754804	345	69	1.1	0.9;
	44	1	0	0	0	0	2	0.984196391	23.391066	230	69	1.1	0.9;
	45	1	1249.5819	0	0	0	2	0.983341591	20.5522213	115	69	1.1	0.9;
	46	1	14.4961546	0	0	0	2	0.967337744	62.1950922	115	68	1.1	0.9;
	47	1	332.781287	0	0	0	2	1.0999981	74.0251393	230	68	1.1	0.9;
	48	1	0	0	0	0	2	1.00359111	81.9492167	230	68	1.1	0.9;
	49	1	131.095658	0	0	0	2	0.963012373	68.3559203	115	68	1.1	0.9;
	50	1	0	0	0	0	2	1.09500436	25.1972231	345	67	1.1	0.9;
	51	1	1209.77452	0	0	0	2	1.09998728	23.2917326	115	67	1.1	0.9;
	52	1	0	0	0	0	2	1.09494891	18.2397699	345	66	1.1	0.9;
	53	1	1788.1464	0	0	0	2	1.09924971	14.3020067	115	66	1.1	0.9;
	54	1	19.9961721	0	0	0	2	1.09997496	22.0139018	230	65	1.1	0.9;
	55	1	938.820282	0	0	0	2	1.09993699	19.3304072	230	65	1.1	0.9;
	56	1	198.780107	0	0	0	2	1.07581686	20.5791412	230	65	1.1	0.9;
	57	1	277.367591	0	0	0	2	1.08998505	17.313933	115	65	1.1	0.9;
	58	1	97.0786567	0	0	0	2	1.07332473	16.9591867	230	65	1.1	0.9;
	59	1	814.767297	0	0	0	2	1.07274406	14.4181964	115	65	1.1	0.9;
	60	1	0	0	0	0	2	1.08881679	19.2816797	230	65	1.1	0.9;
	61	1	273.900495	0	0	0	2	1.08940486	18.6146683	115	65	1.1	0.9;
	62	1	0	0	0	0	2	1.07808055	17.1769913	230	65	1.1	0.9;
	63	1	0	0	0	0	2	1.0647848	12.4281438	230	67	1.1	0.9;
	64	1	236.659038	0	0	0	2	1.06162423	8.72417911	115	67	1.1	0.9;
	65	1	150.601206	0	0	0	2	1.07585289	10.7278906	115	67	1.1	0.9;
	66	1	0	0	0	0	2	1.06474293	15.4220946	345	67	1.1	0.9;
	67	1	0	0	0	0	2	1.06994967	14.3649908	230	67	1.1	0.9;
	68	1	349.196203	0	0	0	2	1.07165383	12.5992351	115	67	1.1	0.9;
	69	1	0	0	0	0	2	1.0585535	17.7772109	345	67	1.1	0.9;
	70	1	0	0	0	0	2	1.0777429	16.0360727	230	67	1.1	0.9;
	71	1	613.989531	0	0	0	2	1.07855585	17.3704409	115	67	1.1	0.9;
	72	1	0	0	0	0	2	1.08224973	18.2681571	115	67	1.1	0.9;
	73	3	1146.84815	0	0	1200	3	0.926165132	10.347898	345	71	1.1	0.9;
	74	1	640.25	0	0	0	3	0.911863942	4.90544964	345	73	1.1	0.9;
	75	1	0	0	0	0	3	0.903366866	4.58042886	138	71	1.1	0.9;
	76	2	688.10889	0	0	0	3	0.902815174	4.55098535	345	71	1.1	0.9;
	77	1	0	0	0	0	3	0.908140512	4.16812092	345	73	1.1	0.9;
	78	1	1366.5224	0	0	0	3	0.900006537	0.0810756305	345	72	1.1	0.9;
	79	1	4603.60669	0	0	0	3	0.90032797	5.33835354	22	74	1.1	0.9;
	80	1	5208.3862	-16.0766497	0	0	3	0.903808276	-5.69986022	138	75	1.1	0.9;
	81	2	1023.02371	0	0	0	3	0.900341882	-1.95990082	345	74	1.1	0.9;
	82	1	4603.6067	0	0	0	3	0.900019858	-3.78094469	22	74	1.1	0.9;
	9001	1	0	0	0	0	3	0.944892719	14.3565525	345	71	1.1	0.9;
	9002	1	0	0	441.236871	-13.0688419	3	0.915493897	6.13377678	345	71	1.1	0.9;
	9003	1	0	-0	0	0	3	0.90004441	2.13988683	345	75	1.1	0.9;
];

%% generator data
%	bus	Pg	Qg	Qmax	Qmin	Vg	mBase	status	Pmax	Pmin	Pc1	Pc2	Qc1min	Qc1max	Qc2min	Qc2max	ramp_agc	ramp_10	ramp_30	ramp_q	apf
mpc.gen = [
	37	723.288484	513.700595	514.05	-431.2	0.982645015	100	1	723.3	253.7	0	0	0	0	0	0	0	0	0	0	0;
	43	650.551885	-87.292	-87.292	-87.292	1.02910908	100	1	869.7	70.1	0	0	0	0	0	0	0	0	0	0	0;
	9003	3257.06864	-934.134	-934.134	-934.134	0.90004441	100	1	3257.1	1440.3	0	0	0	0	0	0	0	0	0	0	0;
	80	1176.97756	508.804141	765.2	-647.5	0.903808276	100	1	1177	120.6	0	0	0	0	0	0	0	0	0	0	0;
	44	844.327151	-137.048	-137.048	-137.048	0.984196391	100	1	1135.5	73.1	0	0	0	0	0	0	0	0	0	0	0;
	72	192.995412	34.4836355	134.4	-106.2	1.08224973	100	1	193	16.6	0	0	0	0	0	0	0	0	0	0	0;
	68	271.694425	5.47433113	192.75	-167.92	1.07165383	100	1	271.7	55.3	0	0	0	0	0	0	0	0	0	0	0;
	79	5831.17538	7.11004044	4183.525	-3513.15	0.90032797	100	1	5831.2	1815.2	0	0	0	0	0	0	0	0	0	0	0;
	65	111.997892	2.52038839	72.8	-61.6	1.07585289	100	1	112	32	0	0	0	0	0	0	0	0	0	0	0;
	56	338.454067	4.87138919	255.25	-220.84	1.07581686	100	1	351.5	142.7	0	0	0	0	0	0	0	0	0	0	0;
	50	3044.5761	2188.11131	2188.425	-1846.05	1.09500436	100	1	3044.6	1919.5	0	0	0	0	0	0	0	0	0	0	0;
	47	70.3932395	315.665356	363.8	-287	1.0999981	100	1	521.4	1.5	0	0	0	0	0	0	0	0	0	0	0;
	57	213.065935	15.1458244	165.975	-154.91	1.08998505	100	1	221.3	104	0	0	0	0	0	0	0	0	0	0	0;
	61	306.871071	-17.586523	230.75	-191.32	1.08940486	100	1	323.1	63	0	0	0	0	0	0	0	0	0	0	0;
	60	163.054408	20.5515136	121.3	-95.3	1.08881679	100	1	173.3	9	0	0	0	0	0	0	0	0	0	0	0;
	42	1546.78636	238.520501	1160.1	-1082.76	1.09998974	100	1	1546.8	981.4	0	0	0	0	0	0	0	0	0	0	0;
	81	1554.78093	-262.091722	1102.75	-898.04	0.900341882	100	1	1554.8	701.7	0	0	0	0	0	0	0	0	0	0	0;
	53	724.994159	107.644348	510.95	-408.7	1.09924971	100	1	725	498.1	0	0	0	0	0	0	0	0	0	0	0;
	71	47.6997189	27.23445	33.4	-26.2	1.07855585	100	1	47.7	42	0	0	0	0	0	0	0	0	0	0	0;
	56	88.5142808	0	0	0	1.07581686	100	1	94.4	0	0	0	0	0	0	0	0	0	0	0	0;
	61	0	4.09820635	66.1	-51.9	1.08940486	100	1	0	0	0	0	0	0	0	0	0	0	0	0	0;
	53	0	25.1696225	50	0	1.09924971	100	1	0	0	0	0	0	0	0	0	0	0	0	0	0;
	51	883.294287	137.373949	618.3	-485.8	1.09998728	100	1	883.3	662	0	0	0	0	0	0	0	0	0	0	0;
	47	0	70.0517414	100	0	1.0999981	100	1	0	0	0	0	0	0	0	0	0	0	0	0	0;
	37	0	149.651279	150	0	0.982645015	100	1	0	0	0	0	0	0	0	0	0	0	0	0	0;
	41	338.793887	254.021411	254.1	-237.16	1.06573591	100	1	338.8	101	0	0	0	0	0	0	0	0	0	0	0;
	39	0	68.9228264	250	0	0.950780775	100	1	0	0	0	0	0	0	0	0	0	0	0	0	0;
	76	723.785692	-196.794408	506.8	-398	0.902815174	100	1	723.8	122	0	0	0	0	0	0	0	0	0	0	0;
	73	2011.97316	-1222.04322	1384.9	-1222.2	0.926165132	100	1	2012	666	0	0	0	0	0	0	0	0	0	0	0;
	73	0	0.155973359	30	0	0.926165132	100	1	0	0	0	0	0	0	0	0	0	0	0	0	0;
	75	59.6986074	6.65856798	41.8	-32.8	0.903366866	100	1	59.7	7	0	0	0	0	0	0	0	0	0	0	0;
	81	0	243.658674	550	0	0.900341882	100	1	0	0	0	0	0	0	0	0	0	0	0	0	0;
	82	1247.48277	190.927097	873.3	-686.1	0.900019858	100	1	1247.5	495.5	0	0	0	0	0	0	0	0	0	0	0;
	9003	0	954.222	954.222	954.222	0.90004441	100	1	0	0	0	0	0	0	0	0	0	0	0	0	0;
	48	14.1124952	74.5928026	74.6	-58.6	1.00359111	100	1	106.5	0	0	0	0	0	0	0	0	0	0	0	0;
	39	1264.78985	-774.400133	946.4	-878.92	0.950780775	100	1	1264.8	856	0	0	0	0	0	0	0	0	0	0	0;
	76	0	45.5984175	100	0	0.902815174	100	1	0	0	0	0	0	0	0	0	0	0	0	0	0;
	38	999.978235	103.677653	700	-550	1.00304345	100	1	1000	4	0	0	0	0	0	0	0	0	0	0	0;
	43	0	-721.356	-721.356	-721.356	1.02910908	100	1	0	0	0	0	0	0	0	0	0	0	0	0	0;
	54	1639.0339	-21.2168866	1242.9	-976.2	1.09997496	100	1	1775.1	15	0	0	0	0	0	0	0	0	0	0	0;
	55	830.430892	-6.51964965	626	-491.6	1.09993699	100	1	894	10	0	0	0	0	0	0	0	0	0	0	0;
	48	1450.00002	0	0	0	1.00359111	100	1	1450.001	1449.999	0	0	0	0	0	0	0	0	0	0	0;
	37	-234.943953	0	0	0	0.982645015	100	1	-234.943	-234.945	0	0	0	0	0	0	0	0	0	0	0;
	73	-352.415952	0	0	0	0.926165132	100	1	-352.415	-352.417	0	0	0	0	0	0	0	0	0	0	0;
	54	-386.039953	0	0	0	1.09997496	100	1	-386.039	-386.041	0	0	0	0	0	0	0	0	0	0	0;
	66	-75.5229512	0	0	0	1.06474293	100	1	-75.522	-75.524	0	0	0	0	0	0	0	0	0	0	0;
	67	-32.3669509	0	0	0	1.06994967	100	1	-32.366	-32.368	0	0	0	0	0	0	0	0	0	0	0;
	75	-53.9449519	0	0	0	0.903366866	100	1	-53.944	-53.946	0	0	0	0	0	0	0	0	0	0	0;
	81	-53.9449508	0	0	0	0.900341882	100	1	-53.944	-53.946	0	0	0	0	0	0	0	0	0	0	0;
];

%% branch data
%	fbus	tbus	r	x	b	rateA	rateB	rateC	ratio	angle	status	angmin	angmax
mpc.branch = [
	37	38	0.0016	0.0493662685	0.25	2500	0	0	0	0	1	-360	360;
	37	39	8e-05	0.00159134742	0.72	2500	0	0	0	0	1	-360	360;
	37	40	0.0009	0.0315	0.06	2500	0	0	0	0	1	-360	360;
	37	43	0.00013	0.00404288264	1.965	2500	0	0	0	0	1	-360	360;
	38	69	0.0043	0.0485	0.79	2500	0	0	0	0	1	-360	360;
	39	73	0.00019	0.00393535917	0.435	2500	0	0	0	0	1	-360	360;
	39	73	0.00019	0.00393535917	0.435	2500	0	0	0	0	1	-360	360;
	40	44	0.0008	0.0113974883	0.6	2500	0	0	0	0	1	-360	360;
	41	42	0.0018	0.0089	0.07	2500	0	0	0	0	1	-360	360;
	41	45	0.0776	0.2241	0.13	2500	0	0	0	0	1	-360	360;
	43	44	0	0.011	0	2500	0	0	0	0	1	-360	360;
	43	50	0.00025	0.00576325823	0.6	2500	0	0	0	0	1	-360	360;
	43	50	0.00025	0.00576325823	0.6	2500	0	0	0	0	1	-360	360;
	44	45	0	0.00440846246	0	2500	0	0	0	0	1	-360	360;
	44	48	0.015	0.105	0.79	2500	0	0	0	0	1	-360	360;
	45	46	0.1235	0.3548	0.16	2500	0	0	0	0	1	-360	360;
	45	51	0.0605	0.1896	0.08	2500	0	0	0	0	1	-360	360;
	45	71	0.1751	0.5575	0.12	2500	0	0	0	0	1	-360	360;
	46	47	0.0632	0.121	0.05	2500	0	0	0	0	1	-360	360;
	46	49	0.164	0.578	0.06	2500	0	0	0	0	1	-360	360;
	47	48	0	0.033	0	2500	0	0	0	0	1	-360	360;
	50	51	0	0.00445147185	0	2500	0	0	0	0	1	-360	360;
	50	52	0.002	0.022	1.28	2500	0	0	0	0	1	-360	360;
	51	53	0.0844	0.2161	0.22	2500	0	0	0	0	1	-360	360;
	51	72	0.0051	0.0232	0.3	2500	0	0	0	0	1	-360	360;
	52	53	0.00014	0.00834382162	0	2500	0	0	0	0	1	-360	360;
	53	55	0.03	0.107	0.3	789.941803	0	0	0	0	1	-360	360;
	53	65	0.035	0.08	0.05	2500	0	0	0	0	1	-360	360;
	54	56	0.01	0.008	0.07	789.941803	0	0	0	0	1	-360	360;
	54	62	0.008	0.069	0.13	789.941803	0	0	0	0	1	-360	360;
	55	57	0.0074	0.04	0.02	789.941803	0	0	0	0	1	-360	360;
	55	59	0.016	0.0817	0.04	789.941803	0	0	0	0	1	-360	360;
	56	58	0.002	0.015	0.11	2500	0	0	0	0	1	-360	360;
	57	59	0.014	0.068	0.03	2500	0	0	0	0	1	-360	360;
	58	60	0.0035	0.0344	0.27	2500	0	0	0	0	1	-360	360;
	58	62	0.002	0.018	0.03	2500	0	0	0	0	1	-360	360;
	59	61	0.068	0.143	0.06	2500	0	0	0	0	1	-360	360;
	62	63	0.0129	0.0803	0.15	2500	0	0	0	0	1	-360	360;
	63	64	0	0.046	0	2500	0	0	0	0	1	-360	360;
	63	67	0.012	0.093	0.18	2500	0	0	0	0	1	-360	360;
	64	65	0.035	0.08	0.05	2500	0	0	0	0	1	-360	360;
	64	68	0.0988	0.231	0.13	2500	0	0	0	0	1	-360	360;
	66	67	0	0.0231	0	2500	0	0	0	0	1	-360	360;
	66	69	0.0018	0.0274	0.27	2500	0	0	0	0	1	-360	360;
	67	68	0	0.049	0	2500	0	0	0	0	1	-360	360;
	67	70	0.007	0.0619	0.12	2500	0	0	0	0	1	-360	360;
	68	71	0.1203	0.2048	0.07	2500	0	0	0	0	1	-360	360;
	69	71	0	0.0375	0	2500	0	0	0	0	1	-360	360;
	70	71	0	0.049	0	2500	0	0	0	0	1	-360	360;
	71	72	0.00053	0.00290313381	0.15	2500	0	0	0	0	1	-360	360;
	73	74	0.00022	0.0042149202	0.51	2500	0	0	0	0	1	-360	360;
	73	74	0.00022	0.0042149202	0.51	2500	0	0	0	0	1	-360	360;
	74	77	0.0003	0.0043	0.08	2500	0	0	0	0	1	-360	360;
	74	78	0.0005	0.0045	0.32	2500	0	0	0	0	1	-360	360;
	74	78	0.0005	0.0045	0.32	2500	0	0	0	0	1	-360	360;
	76	77	0.003	0.0068	1.37	2500	0	0	0	0	1	-360	360;
	78	79	0.0003	0.0153	0	2500	0	0	0	0	1	-360	360;
	78	80	0.00135	0.0125157324	0.75	2500	0	0	0	0	1	-360	360;
	78	81	0.0005	0.0276	0	2500	0	0	0	0	1	-360	360;
	78	82	5e-05	0.00662344603	0	2500	0	0	0	0	1	-360	360;
	40	41	0	0.0161	0	2500	0	0	1	0	1	-360	360;
	49	48	0.0156	0.1536	0	2500	0	0	1	0	1	-360	360;
	54	52	0.002	0.0233	0	789.941803	0	0	1	0	1	-360	360;
	54	55	0	0.013	0	2500	0	0	1	0	1	-360	360;
	56	57	0	0.142	0	2500	0	0	1	0	1	-360	360;
	58	59	0	0.0093	0	2500	0	0	1	0	1	-360	360;
	60	61	0	0.064	0	2500	0	0	1	0	1	-360	360;
	75	76	0.0001	0.0074	0	2500	0	0	1	0	1	-360	360;
	38	39	0.00131	0.01997	0.51614	1216	2454	1804	0	0	1	-360	360;
	73	9002	0.00081	0.01237	0.31971	1216	2454	1804	0	0	1	-360	360;
	9002	74	0.00037	0.00563	0.14565	1216	2454	1804	0	0	1	-360	360;
	74	78	0.0009	0.015	0	5000	5000	5000	0	0	1	-360	360;
	77	78	0.0012	0.02	0	5000	5000	5000	0	0	1	-360	360;
	78	81	0.00072	0.012	0	5000	5000	5000	0	0	1	-360	360;
	78	79	0.0006	0.01	0	5000	5000	5000	0	0	1	-360	360;
	78	82	6e-05	0.00215046949	0	5000	5000	5000	0	0	1	-360	360;
	78	9003	0.00012	0.00430093898	0	5000	5000	5000	0	0	1	-360	360;
	9003	80	0.00012	0.00430093898	0	5000	5000	5000	0	0	1	-360	360;
	81	80	0.00018	0.00645140847	0	5000	5000	5000	0	0	1	-360	360;
	39	9001	0.00021	0.00752664322	0	5000	5000	5000	0	0	1	-360	360;
	9001	73	0.0015	0.025	0	5000	5000	5000	0	0	1	-360	360;
	73	9002	0.00081	0.01237	0.31972	1216	2454	1804	0	0	1	-360	360;
	9002	74	0.00037	0.00563	0.14542	1216	2454	1804	0	0	1	-360	360;
];

%%-----  OPF Data  -----%%
%% generator cost data
%	1	startup	shutdown	n	x1	y1	...	xn	yn
%	2	startup	shutdown	n	c(n-1)	...	c0
mpc.gencost = [
	2	0	0	2	0	0;
	2	0	0	2	0	0;
	2	0	0	2	0	0;
	2	0	0	2	0	0;
	2	0	0	2	0	0;
	2	0	0	2	0	0;
	2	0	0	2	0	0;
	2	0	0	2	0	0;
	2	0	0	2	0	0;
	2	0	0	2	0	0;
	2	0	0	2	0	0;
	2	0	0	2	0	0;
	2	0	0	2	0	0;
	2	0	0	2	0	0;
	2	0	0	2	0	0;
	2	0	0	2	0	0;
	2	0	0	2	0	0;
	2	0	0	2	0	0;
	2	0	0	2	0	0;
	2	0	0	2	0	0;
	2	0	0	2	0	0;
	2	0	0	2	0	0;
	2	0	0	2	0	0;
	2	0	0	2	0	0;
	2	0	0	2	0	0;
	2	0	0	2	0	0;
	2	0	0	2	0	0;
	2	0	0	2	0	0;
	2	0	0	2	0	0;
	2	0	0	2	0	0;
	2	0	0	2	0	0;
	2	0	0	2	0	0;
	2	0	0	2	0	0;
	2	0	0	2	0	0;
	2	0	0	2	0	0;
	2	0	0	2	0	0;
	2	0	0	2	0	0;
	2	0	0	2	0	0;
	2	0	0	2	0	0;
	2	0	0	2	0	0;
	2	0	0	2	0	0;
	2	0	0	2	0	0;
	2	0	0	2	0	0;
	2	0	0	2	0	0;
	2	0	0	2	0	0;
	2	0	0	2	0	0;
	2	0	0	2	0	0;
	2	0	0	2	0	0;
	2	0	0	2	0	0;
];

%% generator unit type (see GENTYPES)
mpc.gentype = {
	'AG';
	'AG';
	'AG';
	'AG';
	'AG';
	'AG';
	'AG';
	'AG';
	'AG';
	'AG';
	'AG';
	'AG';
	'AG';
	'AG';
	'AG';
	'AG';
	'AG';
	'AG';
	'AG';
	'AG';
	'AG';
	'AG';
	'AG';
	'AG';
	'AG';
	'AG';
	'AG';
	'AG';
	'AG';
	'AG';
	'AG';
	'AG';
	'AG';
	'AG';
	'AG';
	'AG';
	'AG';
	'AG';
	'AG';
	'AG';
	'AG';
	'EX';
	'EX';
	'EX';
	'EX';
	'EX';
	'EX';
	'EX';
	'EX';
};

%% generator fuel type (see GENFUELS)
mpc.genfuel = {
	'aggregate_pv_generator';
	'aggregate_pv_generator';
	'aggregate_pv_generator';
	'aggregate_pv_generator';
	'aggregate_pv_generator';
	'aggregate_pv_generator';
	'aggregate_pv_generator';
	'aggregate_pv_generator';
	'aggregate_pv_generator';
	'aggregate_pv_generator';
	'aggregate_pv_generator';
	'aggregate_pv_generator';
	'aggregate_pv_generator';
	'aggregate_pv_generator';
	'aggregate_pv_generator';
	'aggregate_pv_generator';
	'aggregate_pv_generator';
	'aggregate_pv_generator';
	'aggregate_pv_generator';
	'aggregate_pv_generator_p_injection';
	'aggregate_pv_generator_remote_q_control';
	'controllable_q_device';
	'aggregate_pv_generator';
	'controllable_q_device';
	'controllable_q_device';
	'aggregate_pv_generator';
	'controllable_q_device';
	'aggregate_pv_generator';
	'aggregate_pv_generator';
	'controllable_q_device';
	'aggregate_pv_generator';
	'controllable_q_device';
	'aggregate_pv_generator';
	'controllable_q_device';
	'aggregate_pv_generator';
	'aggregate_pv_generator';
	'controllable_q_device';
	'aggregate_pv_generator';
	'reference_boundary_equivalent';
	'aggregate_pv_generator';
	'aggregate_pv_generator';
	'external_schedule';
	'external_schedule';
	'external_schedule';
	'external_schedule';
	'external_schedule';
	'external_schedule';
	'external_schedule';
	'external_schedule';
};

%% bus names
mpc.bus_name = {
	'NEW SEATHED ';
	'GILBOA      ';
	'LEEDS       ';
	'NEW SEATHED ';
	'ROTTERDAM   ';
	'ALBANY      ';
	'EDIC        ';
	'PORTER      ';
	'PORTER      ';
	'COLTON      ';
	'MOSES W     ';
	'MOSES E     ';
	'PLATTSBURGH ';
	'CLAY        ';
	'CLAY        ';
	'ROCHESTER   ';
	'ROCHESTER   ';
	'NIAGARA W   ';
	'NIAGARA E   ';
	'HUNTLEY     ';
	'HUNTLEY     ';
	'GARDENVILLE ';
	'GARDENVILLE ';
	'DUNKIRK     ';
	'DUNKIRK     ';
	'STOLLE RD   ';
	'MEYER       ';
	'MEYER       ';
	'GESONIDGE   ';
	'WATERCURE   ';
	'WRHL        ';
	'HILLSIDE    ';
	'BINGHAMTON  ';
	'BINGHAMTON  ';
	'BINGHAMTON  ';
	'LAPEER      ';
	'PLEASANT VLY';
	'MILLWOOD    ';
	'RAMAPO      ';
	'RAMAPO      ';
	'BUCHANAN    ';
	'CE UG       ';
	'RAV A-3     ';
	'NORTHPORT   ';
	'GOETHALS    ';
	'AK-3        ';
	'KNICKERBOCKER';
	'WOOD STREET';
	'EAST GARDEN CITY';
};
